89
-2228.0793324001534 0.008737091697432095
O 2.2629070109631386 0.6630007687525744 -0.02482028497068818
O 4.252016226175533 0.9546471383378062 1.0470148093990834
N 11.575561113251862 2.844333316244897 0.6543547494354379
N 6.039875750828964 4.228916381608752 1.2289308355314743
N 5.284458994604004 3.4567615858616425 0.5452367803409159
C 10.173202462239564 3.1952090661055643 0.8567981175818333
C 9.763809519189934 4.491425586848173 1.1811925983527327
C 9.18843121351203 2.2120587780234158 0.6644703271257303
C 7.452800101132082 3.81689151950307 1.1123010810261853
C 8.417829474366304 4.793363947545697 1.314797589320338
C 7.851303973820581 2.519976315726014 0.7928429613314455
C 12.536084858555753 3.881994642788692 1.1196661253733977
C 11.920476636841089 1.518746979775472 1.2494771794309285
C 3.874830104097173 3.898967495907215 0.5955319983795478
C 2.8729221536396192 2.920288992084998 0.5586461780013852
C 3.533520325801931 5.247106485080707 0.5707962441052974
C 1.5346207706171755 3.3014108324747156 0.5339101788562803
C 2.1977975013541684 5.616856875116706 0.5279358348460398
C 1.2025317104968762 4.649272306758864 0.5175469579103662
C 3.241018732641269 1.4496592107444548 0.5720652336187088
H 10.48180800406935 5.284000036184569 1.3235838732769254
H 9.468241021781946 1.201761116598503 0.39272278601414295
H 8.106911623708543 5.802983235370361 1.5541127481813248
H 7.102531452923918 1.7536875382477366 0.6386412060597602
H 12.460743290680053 4.073481326642234 2.19247859781946
H 13.54312630293541 3.5365271486970484 0.9014350520714681
H 12.371852401148171 4.8057289080856345 0.5718112371051688
H 12.997211539549365 1.3828650565395344 1.1938184048032634
H 11.446180938392349 0.7137951119146366 0.6916222349516756
H 11.618909222950597 1.4519407123314338 2.296788364407025
H 4.314903316795332 5.999125782728052 0.5635002348237454
H 0.7544078180098966 2.5430477983572897 0.5368193299727717
H 1.9399611015104472 6.669960369111545 0.4902849834913271
H 0.1633975553102011 4.951447064889707 0.47658220749927854
H 2.598201354824447 -0.2642791278735409 0.06232974549083193
O 2.0068686103693287 8.911691471258187 -0.20349062283827182
H 1.5118537869035742 8.743267496087073 -1.0421307867412288
H 1.3094743096891868 9.384188402694598 0.31444077117250324
O 5.893930291482752 7.70746240617432 -0.07657896638278158
H 5.461733329781059 7.736310812011298 -0.9653329694306902
H 5.445316893242661 8.475005103888378 0.3564349477993696
O 10.28451845095762 7.705179015686883 0.279227548622371
H 9.883732269292455 8.440142730549118 0.8057049695608948
H 9.543510835087746 7.5195065610961125 -0.34863290780193507
O 15.452519564351924 5.436060616200946 1.0836837682546177
H 14.962535790167054 6.150974854567741 0.6071827225734242
H 15.761726210106431 5.93818949244803 1.8774706897110738
O -1.6123335166362367 6.895343392344628 -0.28036930971515794
H -2.0123054247263528 6.84225029097913 -1.1850717569022042
H -2.3129642855594574 6.437094445464677 0.24585457763432964
O 16.26917238158085 1.7810301864897358 1.3609109726674171
H 16.032009002477334 2.7090317207202728 1.1133499341624233
H 15.476869305331382 1.5368459774873857 1.901167173242797
O 12.358074328424909 3.3842143143729646 4.267014153542057
H 12.953144164861829 2.619434732685183 4.465377086308931
H 11.483387695327911 2.9990553430051365 4.523516356921099
O 7.741771293865603 3.1687656501858763 4.513089952077416
H 7.425846506140657 4.017912674214029 4.1177180894364405
H 8.371787929361071 2.8787724151521306 3.807794033404559
O 3.3681122376493366 2.9994214139541158 3.787307395651883
H 3.8526485482180037 3.8583332765946654 3.788912805826551
H 4.1106937283373215 2.3587763213238464 3.6863189968770844
O 0.5907344146026406 2.8435260905910087 3.7596678540696473
H 0.5364427632512545 3.817432496341539 3.5985387741967996
H 1.5723749295020748 2.738264935117979 3.821868880550281
O 1.2187453710012965 3.3580873392433963 -3.13763127393275
H 2.032510461693302 2.820811458055114 -3.302715650966595
H 1.1357536714700158 3.2489659159622772 -2.1585505094631743
O 5.655826034740543 3.4055893331252425 -2.7621049333662584
H 6.566107349110863 3.2194756515408427 -2.4238074350167107
H 5.301318674351797 3.940406637152679 -2.009838456886224
O 9.531001456758064 3.9650204959888526 -2.5781116651644687
H 10.40173879935162 4.4297612464159535 -2.646626864100456
H 9.579338561279686 3.644625400188091 -1.6447850531367447
O 13.57177404018666 2.166013122802283 -1.6941707246746383
H 13.424670874251584 2.400872795815984 -2.640737789168203
H 12.719024851180908 2.443669967096969 -1.2808912834808546
O -0.8486981994505528 1.2067841929797467 0.7804387887851131
H -0.831167225261291 0.7297613122119857 1.6455769887162917
H -1.2383465273255714 0.5090532699088646 0.1969191305350966
O 6.449280021037645 -0.6422993012086434 0.07381899504590128
H 5.697218077284284 -0.12770460479505497 0.4563281359421175
H 6.241810350114603 -1.5460388353260988 0.41465211190964485
O 10.045762855534528 -0.556631690115347 -0.4594838243368751
H 9.899780501088786 -0.4578800648808371 -1.4308553299663431
H 9.411358468526657 -1.285638314182545 -0.2551577876072539
O 14.336504289853414 -0.44111936203026814 -1.4151502515794918
H 15.005594062524368 -0.29540113728875794 -0.7019640743563174
H 14.028212829911753 0.4888737920909718 -1.5566055759378667