90
-2228.441058573497 0.052065632704183226
O 2.4632498367823663 0.8117248197526638 0.6511784187782852
O 4.593989675265879 1.5696388963677639 0.6638436953144555
N 11.461027007644777 3.6876737776705504 0.8888463475895942
N 6.081207000618686 4.833835002257262 0.7436196539987585
N 5.121459050819459 3.936530978325572 0.7683464104312048
C 10.137701778265589 3.9039600547264532 0.9375139734158557
C 9.634458261736812 5.248349266580673 0.9401582789040651
C 9.187297290258723 2.797292446245697 0.8793953618385983
C 7.366620888223793 4.406075973980011 0.7916824488265348
C 8.311704483575348 5.476744907957733 0.8516980307022385
C 7.870872852302314 3.04888319654924 0.7831260968980928
C 12.407789878527439 4.828067040747994 0.9049685328128243
C 11.994713991769363 2.310876018608401 0.7603540307111022
C 3.7412802029904455 4.313653918596024 0.7034899173830943
C 2.8220641278244925 3.2384655195023813 0.6498713174810508
C 3.2974515032473786 5.610568339262012 0.7456384744025844
C 1.4684413455080134 3.5207688299802666 0.6278336183374523
C 1.932633322727869 5.886757074827141 0.7613455191321115
C 1.0202071960409467 4.860189535665678 0.6846128945706427
C 3.3760915346277365 1.8262006095489063 0.6402024096073219
H 10.348380244053333 6.047942790768407 0.8503139090926536
H 9.574167923353215 1.7819410093685506 0.8550475426920584
H 7.952862663730248 6.500771405077865 0.7946288844404019
H 7.196174565841234 2.2122104719404563 0.6590963224632228
H 12.344235868350315 5.3903861676645075 1.8329422849252994
H 13.412349287962698 4.430170441529717 0.8521039206615514
H 12.189956316866748 5.506274929961571 0.08703281711197032
H 13.07220970329576 2.3956009004051175 0.7139507131904752
H 11.59260167799246 1.8685660826009138 -0.15027009248276016
H 11.733421624511655 1.6870455783977336 1.6169132107774669
H 4.018373494955368 6.39570839725935 0.7913591849281746
H 0.747548811913509 2.693811619358435 0.5820352773433158
H 1.6037773148132701 6.910779411418231 0.8639318479516849
H -0.04116804007665745 5.074849350120271 0.6417774288050327
H 5.215143616217784 2.8728806743039645 0.6770088413945433
H 2.998468334254377 -0.0235778057755511 0.601816270703098
O 0.5448981273287264 3.9798691935143324 3.1453237383651294
H 1.5098476333507327 4.052659303056663 3.357437861839019
H 0.34626663773041655 3.1140492227620995 3.5784056141149807
O 5.039898905880341 3.7164014058102763 3.5289658982129803
H 4.380793708644399 3.3603170303883716 2.8831747428153225
H 5.101735389835342 4.662324639714454 3.2335633086773012
O 8.633125333440416 3.492354656519703 3.53493335830689
H 8.608607505432115 4.478137655930959 3.6199037392799567
H 7.70561768188424 3.3142412935071612 3.240107893029526
O 11.93642991869698 3.303893793504356 3.523962021348318
H 11.974707233400549 4.206188654029859 3.1320637044883304
H 12.742869793274133 3.3244608138423106 4.093403520747826
O 12.4713157779268 4.041582708037058 -2.0505618957722795
H 13.32401866994093 4.0413761818137255 -1.5312976020167153
H 12.026916714265452 3.2412120430191678 -1.6650873960593184
O 9.651951535961885 3.287528791078954 -1.876633559314388
H 8.7719530193323 3.0599894678269592 -2.2722881508390884
H 9.432835304062982 4.100342006068546 -1.358159550659832
O 5.058487076660378 3.722793163552889 -1.798339976467299
H 5.9774373842277635 3.4072036591160417 -1.6104938008106744
H 5.21568342635875 4.196112948763004 -2.6494809880612262
O 1.5171441438368778 4.345046165547491 -2.181738447477587
H 1.396469909849406 5.041281532371651 -1.492247407474626
H 2.0381459101036943 3.679822607274792 -1.669007483529438
O -2.300270255956104 4.710150113537455 0.38792358297824103
H -1.9288921985925556 4.160547585662442 1.1219402773667406
H -3.203915011209021 4.905388605303192 0.7425103676927719
O 14.651132840897938 3.302933508146269 1.825947826795771
H 15.385240772342133 2.871090000428998 1.3314825498562268
H 14.948092156302705 3.1995883787910726 2.7610419504260446
O 12.79782724581959 7.544654965171445 1.0058657868643754
H 13.658659464291263 7.55787888870703 1.492859939029171
H 12.263651315960127 8.15362041155835 1.57164296774868
O 8.866795794778609 8.173041847772962 1.6975077275460317
H 9.675470182390702 8.055633133799466 1.1386713597093194
H 9.075634421637222 7.572380799402269 2.4570145445653826
O 5.650175780420247 7.679699249294378 1.9861844850685708
H 5.126592817330102 7.688922002311157 1.1458629057556213
H 5.055110225555842 7.148991984043345 2.5760357854083873
O 1.3365817008829932 8.453360180863067 2.518245437935367
H 1.6730479084378511 9.131394123926688 3.156222023504815
H 1.5917421455078296 7.618213204608913 2.983852989969422
O 13.761238695167894 0.27464863360092506 0.2346419178594533
H 13.296771979662717 -0.3349879564223249 -0.3898276413654166
H 14.08110980211613 -0.36410015448646393 0.9172353732316433
O 9.512712805809999 -0.2028940055688272 0.2345977136199732
H 8.90448460526914 0.02395450121552548 -0.5129878936973411
H 8.927947935115052 -0.7826828871613698 0.7842608200000977
O 5.303761061320133 -1.1490670759691084 0.36405665404192883
H 5.811766342197828 -0.8595677278600357 1.1635314202995892
H 5.7316773714514335 -0.5948104126965471 -0.33635345549280243
O -0.3132593382295017 1.348668542124624 0.38730606678184376
H -0.9905205718835491 1.3526334566088283 -0.32762683205596005
H -0.6546544942254673 0.6581548832769202 1.0016514623803778