35
-878.6418487535925 0.00089469868625587
O 2.235007273250743 0.8944300112972807 0.6510755041154552
O 4.45230598404556 1.295536834472581 0.6520130926968946
N 11.586381355460485 3.7574936456995096 0.4088925127054448
N 5.998400755767897 4.857181211708123 0.8181411016819568
N 5.205324151951662 3.8585673308246 0.7639774548213036
C 10.18192034423114 4.003310784293987 0.5802691505144085
C 9.6815143375445 5.309155415242955 0.6901523509254923
C 9.257728634100225 2.94563692442456 0.5735023381252484
C 7.4149594046682745 4.483937250279323 0.7530230689803884
C 8.323602887634497 5.53929940481696 0.7734362043388086
C 7.902370711414053 3.1812204401204394 0.6563130115525541
C 12.510557809382805 4.825362517713187 0.8502176752612592
C 12.068732791186045 2.39414954001788 0.7226676288113808
C 3.784999688722968 4.249489164040638 0.7961393436979772
C 2.829721747630592 3.2238129138495784 0.7445479101433228
C 3.3774635542087132 5.581830112510542 0.8568515046907412
C 1.4810510937061647 3.569344138073224 0.7519478104868005
C 2.032301870369062 5.901415118084043 0.8632610433790336
C 1.0792444520968554 4.892227512891152 0.8088698663376436
C 3.1378187748946282 1.7156048427743966 0.6788699327511426
H 10.352560493574837 6.151884785393031 0.7067177027750828
H 9.598000845200696 1.9260605978312817 0.4988296534666128
H 7.948583588919533 6.55287512359377 0.8532953686739176
H 7.217532253673782 2.3435126776614306 0.6443218939100225
H 12.394159150390394 5.080740262676355 1.906834185320724
H 13.530920417634984 4.486839872446128 0.6879000271320258
H 12.361122190875806 5.724825234723942 0.25654593566487105
H 13.145117017909323 2.365941522646157 0.5718672131772355
H 11.619899571398863 1.6694345941714666 0.04664349914033257
H 11.854108440888144 2.092335352480156 1.7513528655180337
H 4.1313673371202535 6.356909937720225 0.8952576196769244
H 0.7514203526744027 2.769522655091837 0.7099403052438612
H 1.7249648281753736 6.938837551866572 0.9081212697863763
H 0.0250785146081204 5.139561457236979 0.8102276402455616
H 5.000325400252411 2.1183407390531985 0.6799513015635933