89
-2228.0526577639275 0.01765768800833179
O 2.2761003649732214 0.8439889154178328 0.6768986829110705
O 4.472271126980685 1.329549498711546 0.5886520480166986
N 11.47502732699669 3.6956719656631494 0.8849352218434323
N 5.923545108053454 4.90721880990159 0.7783403058455216
N 5.14587375148087 3.8971005923465865 0.6731385920712477
C 10.098302003788307 3.973115949430579 0.8400501827479036
C 9.625513094283248 5.2959404990089265 0.8191360042807178
C 9.146555408166801 2.93074328880494 0.8189766614820609
C 7.339339329404453 4.5311890128277446 0.7774010307097511
C 8.27301893169922 5.563135454926003 0.7882612978464084
C 7.8033699860807015 3.2123183890449596 0.7910111303094433
C 12.458855284737377 4.789544020751543 0.8490287217338783
C 11.946190845561796 2.3030877944761263 0.8244428293838381
C 3.717192629979174 4.24674556759472 0.669445515743503
C 2.785380870382179 3.19666289575632 0.6660477601127947
C 3.271500458803596 5.565609630769919 0.6615701094439488
C 1.425034819747031 3.503687486107798 0.6703195921014855
C 1.920356880110708 5.849682488182364 0.6613645989665786
C 0.9874745408798183 4.818454986705091 0.6688342233322679
C 3.1431758376589847 1.7012543822951336 0.6462892875469499
H 10.321990162507872 6.117335295528882 0.8131552844114401
H 9.454679418996944 1.8947022485063607 0.8091651139370514
H 7.929912463571634 6.590073242124982 0.782153700540193
H 7.096899189404115 2.393527813662184 0.7968160687314598
H 12.314534449463277 5.477387509484894 1.682973132897387
H 13.455973976617232 4.362054284039671 0.940699411926907
H 12.39141902631892 5.369365409219847 -0.07445048317044467
H 13.032271960862026 2.2993435206424304 0.7761356804044499
H 11.554956526736659 1.7847063007372328 -0.05215535408679129
H 11.641008089919975 1.7412894557827163 1.709296947006125
H 4.00089518644151 6.362741625681127 0.6450855109696022
H 0.696737382199749 2.696575452706822 0.6754210242309622
H 1.596005898801608 6.8821457754762445 0.6727426092445817
H -0.07521894111667997 5.042064787819402 0.668646356603568
H 4.990186680075402 2.1731373160666756 0.5712183727122039
H -0.50007946651209 0.5102285651622412 0.8350416003814786
O 0.43978642760451525 3.981065521974256 3.908954805352405
H 1.3718112229140649 4.036269315891375 3.584022559174087
H 0.23871846101880828 3.0426923222490236 3.6687287371984914
O 5.26424509221653 3.6816279118970474 3.82484800850864
H 4.540026168519326 3.1820433667766697 3.370225225299668
H 5.030803644982104 4.606867679908611 3.560476876384908
O 8.436099547850077 3.527722241780322 4.147158912452134
H 8.573751295440804 4.414697238507085 3.7308244799834944
H 7.542408294056218 3.30638556873995 3.7850403959410794
O 11.97290965214003 3.1947830503167136 4.25793911028947
H 11.763163257897677 3.7579665032030243 3.4716465700500803
H 12.95012785371949 3.343537440980368 4.319899174603056
O 12.645227635049844 4.132251367146089 -2.405469765810611
H 13.350737322467555 3.8089959240484164 -1.7916485595191731
H 11.911433348198514 3.51617516631108 -2.1619861489796293
O 9.698671651507201 3.259287835836801 -2.3437647433172883
H 8.76170085627049 2.9747586083353665 -2.4842824591099686
H 9.555964660885646 4.183667909120189 -2.0230072610058896
O 5.036151882022256 3.499811725133421 -2.194944630613828
H 5.994982801506786 3.3258696580878215 -2.0256539556181647
H 5.106400701958915 4.206300344646489 -2.8833699882566233
O 1.683662831129883 4.412143704939239 -2.7808821821296577
H 1.3065166726208748 5.026866675011726 -2.10394873393969
H 2.0384022754639797 3.7027337303541765 -2.1905374299148868
O -2.2542326034692994 4.648137322938703 0.48555015551406666
H -2.1554442348561005 3.927892049414422 1.156895861638713
H -3.143557792053509 5.000796390314933 0.7371890407731769
O 15.176880314549354 3.36480668950972 1.8904648574465914
H 15.651667144011471 2.6540396416806047 1.3943427269898285
H 15.18416443524871 2.977660757996881 2.8005438076382645
O 12.819594208846992 7.996271728944135 1.0144366690764695
H 13.684907052520622 7.771752012983448 1.4383943206838368
H 12.397025962054764 8.505767191626015 1.7501300783692713
O 9.050262866173039 8.6366535946224 1.8635992652620939
H 9.719460899086933 8.328727311607953 1.2035206722089171
H 9.107121636688033 7.903965014041788 2.5257219022287116
O 5.690156162126644 8.050239882163902 2.3225843358402587
H 5.712774976352122 8.01321981463318 1.3334754611838286
H 5.184665182406346 7.221073272339995 2.5122497419725565
O 1.4534927187614322 8.422535692285654 2.557760147041181
H 1.662650129829062 9.216664497929152 3.1090727957659063
H 1.4295695461472087 7.724439379133716 3.259628928613081
O 14.188955447104636 -0.07427652396758914 0.09512929128044934
H 13.349415125547006 -0.31749623552206224 -0.3678964899173883
H 14.037910702585096 -0.5267765458363514 0.961695461855636
O 9.440035818139776 -0.1534302176015224 0.25017670074865256
H 8.928529309945809 -0.1865364877660983 -0.5952522552046048
H 8.916005684927615 -0.7915861142713814 0.7926141069450408
O 5.990832005672642 -1.022749520871222 0.33069750549968385
H 5.505961960611926 -0.9249029261113779 1.1880460390877292
H 5.337261317870772 -0.5805891621586727 -0.2667767751199073
O -0.9625940015778159 1.3503447373486843 0.5805854026357279
H -1.0578468216592405 1.2181310774406127 -0.396309687036795