36
-879.1163651766756 0.0019060994035571058
O 2.4458402981104417 0.8460886499989678 0.6364173272026787
O 4.593988167121337 1.5872246752121206 0.6826154738633651
N 11.534396882522012 3.712306597003729 0.7006917476831421
N 6.056396616587866 4.811439634078851 0.812226555399559
N 5.135194054682171 3.8949373392361117 0.7830224839213823
C 10.179268655367053 3.9501943739816094 0.7277718044186223
C 9.66698305885107 5.278770617736452 0.7946638754441804
C 9.241247207839377 2.867394618205999 0.6859447087719811
C 7.3975063830653545 4.424513758568788 0.7817869822303019
C 8.323116636457295 5.498254530843098 0.8197862981876752
C 7.9024689208640835 3.097798943613622 0.7125320720462871
C 12.496084966038863 4.832868367851857 0.7927218778989463
C 12.06102434798001 2.3305949407513906 0.6618449066864216
C 3.7465229391213897 4.302565293106575 0.793017642297966
C 2.822887858065008 3.242278637823033 0.7333461824981435
C 3.314144174603809 5.618207436389298 0.8468131835846165
C 1.4606674396468313 3.515616324654519 0.7222276840435411
C 1.9474857578052942 5.873091812344935 0.8359148806561199
C 1.0259731897599984 4.833989575475049 0.7722950362089426
C 3.364859171642896 1.8416404263599815 0.6822808619445044
H 10.34379998725222 6.115634913148786 0.8262370964752572
H 9.602524251434975 1.8536395228189322 0.6331710982378125
H 7.933049502198718 6.510613005037451 0.8719041153940829
H 7.226728370091365 2.2503650752080135 0.6793785225509384
H 12.39840074239296 5.358063822222636 1.7449777658904482
H 13.504065034955202 4.433544930862522 0.7185770164606018
H 12.345588100977947 5.543310855635126 -0.02121921991213904
H 13.146493861609999 2.3733528708319764 0.6364584038331004
H 11.71554438858703 1.8061967780399546 -0.23040011932430465
H 11.756645264440875 1.7667585265247838 1.5455593406116646
H 4.0367094133793096 6.423153612927863 0.8940779021872101
H 0.7484585503637704 2.698680813384036 0.6733284506559153
H 1.598842467209979 6.8997684781588235 0.8760078327837473
H -0.03510274616545906 5.052345784989215 0.7617831775960419
H 5.156168914705381 2.7499651818449053 0.7339345547716141
H 2.956038172632092 -0.0024288617084732692 0.6099872626280695